BEGIN OPTIONS 
    SAVE_FLOWS
END OPTIONS

BEGIN DIMENSIONS
   MAXBOUND 1
END DIMENSIONS

BEGIN PERIOD 1
    1 1 1 -2.98
END PERIOD 1
BEGIN PERIOD 2
    1 1 1 -2.96
END PERIOD 2
BEGIN PERIOD 3
    1 1 1 -2.94
END PERIOD 3
BEGIN PERIOD 4
    1 1 1 -2.92
END PERIOD 4
BEGIN PERIOD 5
    1 1 1 -2.9
END PERIOD 5
BEGIN PERIOD 6
    1 1 1 -2.88
END PERIOD 6
BEGIN PERIOD 7
    1 1 1 -2.86
END PERIOD 7
BEGIN PERIOD 8
    1 1 1 -2.84
END PERIOD 8
BEGIN PERIOD 9
    1 1 1 -2.82
END PERIOD 9
BEGIN PERIOD 10
    1 1 1 -2.8
END PERIOD 10
BEGIN PERIOD 11
    1 1 1 -2.78
END PERIOD 11
BEGIN PERIOD 12
    1 1 1 -2.76
END PERIOD 12
BEGIN PERIOD 13
    1 1 1 -2.7399999999999998
END PERIOD 13
BEGIN PERIOD 14
    1 1 1 -2.7199999999999998
END PERIOD 14
BEGIN PERIOD 15
    1 1 1 -2.6999999999999997
END PERIOD 15
BEGIN PERIOD 16
    1 1 1 -2.6799999999999997
END PERIOD 16
BEGIN PERIOD 17
    1 1 1 -2.6599999999999997
END PERIOD 17
BEGIN PERIOD 18
    1 1 1 -2.6399999999999997
END PERIOD 18
BEGIN PERIOD 19
    1 1 1 -2.6199999999999997
END PERIOD 19
BEGIN PERIOD 20
    1 1 1 -2.5999999999999996
END PERIOD 20
BEGIN PERIOD 21
    1 1 1 -2.5799999999999996
END PERIOD 21
BEGIN PERIOD 22
    1 1 1 -2.5599999999999996
END PERIOD 22
BEGIN PERIOD 23
    1 1 1 -2.5399999999999996
END PERIOD 23
BEGIN PERIOD 24
    1 1 1 -2.5199999999999996
END PERIOD 24
BEGIN PERIOD 25
    1 1 1 -2.4999999999999996
END PERIOD 25
BEGIN PERIOD 26
    1 1 1 -2.4799999999999995
END PERIOD 26
BEGIN PERIOD 27
    1 1 1 -2.4599999999999995
END PERIOD 27
BEGIN PERIOD 28
    1 1 1 -2.4399999999999995
END PERIOD 28
BEGIN PERIOD 29
    1 1 1 -2.4199999999999995
END PERIOD 29
BEGIN PERIOD 30
    1 1 1 -2.3999999999999995
END PERIOD 30
BEGIN PERIOD 31
    1 1 1 -2.3799999999999994
END PERIOD 31
BEGIN PERIOD 32
    1 1 1 -2.3599999999999994
END PERIOD 32
BEGIN PERIOD 33
    1 1 1 -2.3399999999999994
END PERIOD 33
BEGIN PERIOD 34
    1 1 1 -2.3199999999999994
END PERIOD 34
BEGIN PERIOD 35
    1 1 1 -2.2999999999999994
END PERIOD 35
BEGIN PERIOD 36
    1 1 1 -2.2799999999999994
END PERIOD 36
BEGIN PERIOD 37
    1 1 1 -2.2599999999999993
END PERIOD 37
BEGIN PERIOD 38
    1 1 1 -2.2399999999999993
END PERIOD 38
BEGIN PERIOD 39
    1 1 1 -2.2199999999999993
END PERIOD 39
BEGIN PERIOD 40
    1 1 1 -2.1999999999999993
END PERIOD 40
BEGIN PERIOD 41
    1 1 1 -2.1799999999999993
END PERIOD 41
BEGIN PERIOD 42
    1 1 1 -2.1599999999999993
END PERIOD 42
BEGIN PERIOD 43
    1 1 1 -2.1399999999999992
END PERIOD 43
BEGIN PERIOD 44
    1 1 1 -2.119999999999999
END PERIOD 44
BEGIN PERIOD 45
    1 1 1 -2.099999999999999
END PERIOD 45
BEGIN PERIOD 46
    1 1 1 -2.079999999999999
END PERIOD 46
BEGIN PERIOD 47
    1 1 1 -2.059999999999999
END PERIOD 47
BEGIN PERIOD 48
    1 1 1 -2.039999999999999
END PERIOD 48
BEGIN PERIOD 49
    1 1 1 -2.019999999999999
END PERIOD 49
BEGIN PERIOD 50
    1 1 1 -1.9999999999999991
END PERIOD 50
BEGIN PERIOD 51
    1 1 1 -1.979999999999999
END PERIOD 51
BEGIN PERIOD 52
    1 1 1 -1.959999999999999
END PERIOD 52
BEGIN PERIOD 53
    1 1 1 -1.939999999999999
END PERIOD 53
BEGIN PERIOD 54
    1 1 1 -1.919999999999999
END PERIOD 54
BEGIN PERIOD 55
    1 1 1 -1.899999999999999
END PERIOD 55
BEGIN PERIOD 56
    1 1 1 -1.879999999999999
END PERIOD 56
BEGIN PERIOD 57
    1 1 1 -1.859999999999999
END PERIOD 57
BEGIN PERIOD 58
    1 1 1 -1.839999999999999
END PERIOD 58
BEGIN PERIOD 59
    1 1 1 -1.819999999999999
END PERIOD 59
BEGIN PERIOD 60
    1 1 1 -1.799999999999999
END PERIOD 60
BEGIN PERIOD 61
    1 1 1 -1.779999999999999
END PERIOD 61
BEGIN PERIOD 62
    1 1 1 -1.759999999999999
END PERIOD 62
BEGIN PERIOD 63
    1 1 1 -1.7399999999999989
END PERIOD 63
BEGIN PERIOD 64
    1 1 1 -1.7199999999999989
END PERIOD 64
BEGIN PERIOD 65
    1 1 1 -1.6999999999999988
END PERIOD 65
BEGIN PERIOD 66
    1 1 1 -1.6799999999999988
END PERIOD 66
BEGIN PERIOD 67
    1 1 1 -1.6599999999999988
END PERIOD 67
BEGIN PERIOD 68
    1 1 1 -1.6399999999999988
END PERIOD 68
BEGIN PERIOD 69
    1 1 1 -1.6199999999999988
END PERIOD 69
BEGIN PERIOD 70
    1 1 1 -1.5999999999999988
END PERIOD 70
BEGIN PERIOD 71
    1 1 1 -1.5799999999999987
END PERIOD 71
BEGIN PERIOD 72
    1 1 1 -1.5599999999999987
END PERIOD 72
BEGIN PERIOD 73
    1 1 1 -1.5399999999999987
END PERIOD 73
BEGIN PERIOD 74
    1 1 1 -1.5199999999999987
END PERIOD 74
BEGIN PERIOD 75
    1 1 1 -1.4999999999999987
END PERIOD 75
BEGIN PERIOD 76
    1 1 1 -1.4799999999999986
END PERIOD 76
BEGIN PERIOD 77
    1 1 1 -1.4599999999999986
END PERIOD 77
BEGIN PERIOD 78
    1 1 1 -1.4399999999999986
END PERIOD 78
BEGIN PERIOD 79
    1 1 1 -1.4199999999999986
END PERIOD 79
BEGIN PERIOD 80
    1 1 1 -1.3999999999999986
END PERIOD 80
BEGIN PERIOD 81
    1 1 1 -1.3799999999999986
END PERIOD 81
BEGIN PERIOD 82
    1 1 1 -1.3599999999999985
END PERIOD 82
BEGIN PERIOD 83
    1 1 1 -1.3399999999999985
END PERIOD 83
BEGIN PERIOD 84
    1 1 1 -1.3199999999999985
END PERIOD 84
BEGIN PERIOD 85
    1 1 1 -1.2999999999999985
END PERIOD 85
BEGIN PERIOD 86
    1 1 1 -1.2799999999999985
END PERIOD 86
BEGIN PERIOD 87
    1 1 1 -1.2599999999999985
END PERIOD 87
BEGIN PERIOD 88
    1 1 1 -1.2399999999999984
END PERIOD 88
BEGIN PERIOD 89
    1 1 1 -1.2199999999999984
END PERIOD 89
BEGIN PERIOD 90
    1 1 1 -1.1999999999999984
END PERIOD 90
BEGIN PERIOD 91
    1 1 1 -1.1799999999999984
END PERIOD 91
BEGIN PERIOD 92
    1 1 1 -1.1599999999999984
END PERIOD 92
BEGIN PERIOD 93
    1 1 1 -1.1399999999999983
END PERIOD 93
BEGIN PERIOD 94
    1 1 1 -1.1199999999999983
END PERIOD 94
BEGIN PERIOD 95
    1 1 1 -1.0999999999999983
END PERIOD 95
BEGIN PERIOD 96
    1 1 1 -1.0799999999999983
END PERIOD 96
BEGIN PERIOD 97
    1 1 1 -1.0599999999999983
END PERIOD 97
BEGIN PERIOD 98
    1 1 1 -1.0399999999999983
END PERIOD 98
BEGIN PERIOD 99
    1 1 1 -1.0199999999999982
END PERIOD 99
BEGIN PERIOD 100
    1 1 1 -0.9999999999999982
END PERIOD 100
BEGIN PERIOD 101
    1 1 1 -0.9799999999999982
END PERIOD 101
BEGIN PERIOD 102
    1 1 1 -0.9599999999999982
END PERIOD 102
BEGIN PERIOD 103
    1 1 1 -0.9399999999999982
END PERIOD 103
BEGIN PERIOD 104
    1 1 1 -0.9199999999999982
END PERIOD 104
BEGIN PERIOD 105
    1 1 1 -0.8999999999999981
END PERIOD 105
BEGIN PERIOD 106
    1 1 1 -0.8799999999999981
END PERIOD 106
BEGIN PERIOD 107
    1 1 1 -0.8599999999999981
END PERIOD 107
BEGIN PERIOD 108
    1 1 1 -0.8399999999999981
END PERIOD 108
BEGIN PERIOD 109
    1 1 1 -0.8199999999999981
END PERIOD 109
BEGIN PERIOD 110
    1 1 1 -0.799999999999998
END PERIOD 110
BEGIN PERIOD 111
    1 1 1 -0.779999999999998
END PERIOD 111
BEGIN PERIOD 112
    1 1 1 -0.759999999999998
END PERIOD 112
BEGIN PERIOD 113
    1 1 1 -0.739999999999998
END PERIOD 113
BEGIN PERIOD 114
    1 1 1 -0.719999999999998
END PERIOD 114
BEGIN PERIOD 115
    1 1 1 -0.699999999999998
END PERIOD 115
BEGIN PERIOD 116
    1 1 1 -0.6799999999999979
END PERIOD 116
BEGIN PERIOD 117
    1 1 1 -0.6599999999999979
END PERIOD 117
BEGIN PERIOD 118
    1 1 1 -0.6399999999999979
END PERIOD 118
BEGIN PERIOD 119
    1 1 1 -0.6199999999999979
END PERIOD 119
BEGIN PERIOD 120
    1 1 1 -0.5999999999999979
END PERIOD 120
BEGIN PERIOD 121
    1 1 1 -0.5799999999999979
END PERIOD 121
BEGIN PERIOD 122
    1 1 1 -0.5599999999999978
END PERIOD 122
BEGIN PERIOD 123
    1 1 1 -0.5399999999999978
END PERIOD 123
BEGIN PERIOD 124
    1 1 1 -0.5199999999999978
END PERIOD 124
BEGIN PERIOD 125
    1 1 1 -0.4999999999999978
END PERIOD 125
BEGIN PERIOD 126
    1 1 1 -0.47999999999999776
END PERIOD 126
BEGIN PERIOD 127
    1 1 1 -0.45999999999999774
END PERIOD 127
BEGIN PERIOD 128
    1 1 1 -0.4399999999999977
END PERIOD 128
BEGIN PERIOD 129
    1 1 1 -0.4199999999999977
END PERIOD 129
BEGIN PERIOD 130
    1 1 1 -0.3999999999999977
END PERIOD 130
BEGIN PERIOD 131
    1 1 1 -0.3799999999999977
END PERIOD 131
BEGIN PERIOD 132
    1 1 1 -0.35999999999999766
END PERIOD 132
BEGIN PERIOD 133
    1 1 1 -0.33999999999999764
END PERIOD 133
BEGIN PERIOD 134
    1 1 1 -0.3199999999999976
END PERIOD 134
BEGIN PERIOD 135
    1 1 1 -0.2999999999999976
END PERIOD 135
BEGIN PERIOD 136
    1 1 1 -0.2799999999999976
END PERIOD 136
BEGIN PERIOD 137
    1 1 1 -0.25999999999999757
END PERIOD 137
BEGIN PERIOD 138
    1 1 1 -0.23999999999999758
END PERIOD 138
BEGIN PERIOD 139
    1 1 1 -0.2199999999999976
END PERIOD 139
BEGIN PERIOD 140
    1 1 1 -0.1999999999999976
END PERIOD 140
BEGIN PERIOD 141
    1 1 1 -0.1799999999999976
END PERIOD 141
BEGIN PERIOD 142
    1 1 1 -0.15999999999999762
END PERIOD 142
BEGIN PERIOD 143
    1 1 1 -0.13999999999999763
END PERIOD 143
BEGIN PERIOD 144
    1 1 1 -0.11999999999999762
END PERIOD 144
BEGIN PERIOD 145
    1 1 1 -0.09999999999999762
END PERIOD 145
BEGIN PERIOD 146
    1 1 1 -0.07999999999999761
END PERIOD 146
BEGIN PERIOD 147
    1 1 1 -0.05999999999999761
END PERIOD 147
BEGIN PERIOD 148
    1 1 1 -0.03999999999999761
END PERIOD 148
BEGIN PERIOD 149
    1 1 1 -0.019999999999997606
END PERIOD 149
BEGIN PERIOD 150
    1 1 1 2.3939183968479938e-15
END PERIOD 150
