BEGIN OPTIONS
MEMORY_PRINT_OPTION ALL
END OPTIONS

BEGIN TIMING
  TDIS6 model.tdis
END TIMING

BEGIN MODELS
  #modeltype      namefile      modelname
         GWF6      model.nam          model
END MODELS

BEGIN EXCHANGES
END EXCHANGES

BEGIN SOLUTIONGROUP 1
  MXITER 1
  IMS6 model.ims model
END SOLUTIONGROUP
