BEGIN OPTIONS
END OPTIONS

BEGIN PACKAGES
  DIS6          model.dis
  IC6           model.ic
  NPF6          model.npf
  STO6          model.sto
  RCH6          model.rch
  OC6           model.oc
  GHB6          model.ghb
  WEL6          model.wel
  DRN6          model.drn  sof
END PACKAGES

