BEGIN OPTIONS
END OPTIONS

BEGIN PACKAGES
  DIS6          model.dis
  IC6           model.ic
  NPF6          model.npf
  OC6           model.oc
  GHB6          model.ghb
  STO6          model.sto
  RCH6          model.rch
END PACKAGES

