 # Basic package file for MODFLOW-USG, generated by el koko.
 begin options
 end options
  
 BEGIN GRIDDATA
 strt
    constant -3.0
END GRIDDATA
