BEGIN OPTIONS
END OPTIONS

BEGIN DIMENSIONS
MAXBOUND 1
END DIMENSIONS


BEGIN PERIOD 1
1 1 1 0.0
END PERIOD