BEGIN OPTIONS
  HEAD FILEOUT flow.hds
  BUDGET FILEOUT flow.cbc
END OPTIONS

BEGIN PERIOD 1
  SAVE HEAD ALL
  SAVE BUDGET ALL
END PERIOD
