 begin options
 PRINT_INPUT
 PRINT_FLOWS
 SAVE_FLOWS
 end options
  
 begin dimensions
   MAXBOUND           1
 end dimensions
  
 begin period 1
   5 1 1    -1.5  0.1
 end period 1
